psse/psse-converter/src/test/resources/two_area_case.xiidm
<?xml version="1.0" encoding="UTF-8"?>
<iidm:network xmlns:iidm="http://www.powsybl.org/schema/iidm/1_17" xmlns:slt="http://www.powsybl.org/schema/iidm/ext/slack_terminal/1_5" id="two_area_case" caseDate="2016-01-01T10:00:00.000+02:00" forecastDistance="0" sourceFormat="PSS/E" minimumValidationLevel="STEADY_STATE_HYPOTHESIS">
    <iidm:substation id="S1-5">
        <iidm:voltageLevel id="VL1" nominalV="20.0" topologyKind="BUS_BREAKER">
            <iidm:busBreakerTopology>
                <iidm:bus id="B1" name="1           " v="20.0" angle="32.6732"/>
            </iidm:busBreakerTopology>
            <iidm:generator id="B1-G1 " energySource="OTHER" minP="0.0" maxP="900.0" targetP="745.861" localTargetV="20.0" localTargetQ="143.612" bus="B1" connectableBus="B1">
                <iidm:minMaxReactiveLimits minQ="0.0" maxQ="600.0"/>
                <iidm:voltageRegulation mode="VOLTAGE" regulating="true"/>
            </iidm:generator>
        </iidm:voltageLevel>
        <iidm:voltageLevel id="VL5" nominalV="230.0" topologyKind="BUS_BREAKER">
            <iidm:busBreakerTopology>
                <iidm:bus id="B5" name="101         " v="225.23440000000002" angle="27.5136"/>
            </iidm:busBreakerTopology>
        </iidm:voltageLevel>
        <iidm:twoWindingsTransformer id="T-1-5-1 " r="0.529" x="6.348" ratedU1="20.0" ratedU2="230.0" voltageLevelId1="VL1" bus1="B1" connectableBus1="B1" voltageLevelId2="VL5" bus2="B5" connectableBus2="B5"/>
    </iidm:substation>
    <iidm:substation id="S2-6">
        <iidm:voltageLevel id="VL2" nominalV="20.0" topologyKind="BUS_BREAKER">
            <iidm:busBreakerTopology>
                <iidm:bus id="B2" name="2           " v="19.9522" angle="21.1276"/>
            </iidm:busBreakerTopology>
            <iidm:generator id="B2-G1 " energySource="OTHER" minP="0.0" maxP="900.0" targetP="700.0" localTargetV="20.0" localTargetQ="300.0" bus="B2" connectableBus="B2">
                <iidm:minMaxReactiveLimits minQ="300.0" maxQ="300.0"/>
            </iidm:generator>
        </iidm:voltageLevel>
        <iidm:voltageLevel id="VL6" nominalV="230.0" topologyKind="BUS_BREAKER">
            <iidm:busBreakerTopology>
                <iidm:bus id="B6" name="102         " v="220.3308" angle="16.2655"/>
            </iidm:busBreakerTopology>
        </iidm:voltageLevel>
        <iidm:twoWindingsTransformer id="T-2-6-1 " r="0.529" x="6.348" ratedU1="20.0" ratedU2="230.0" voltageLevelId1="VL2" bus1="B2" connectableBus1="B2" voltageLevelId2="VL6" bus2="B6" connectableBus2="B6"/>
    </iidm:substation>
    <iidm:substation id="S3-9">
        <iidm:voltageLevel id="VL3" nominalV="20.0" topologyKind="BUS_BREAKER">
            <iidm:busBreakerTopology>
                <iidm:bus id="B3" name="12          " v="19.2526" angle="10.6179"/>
            </iidm:busBreakerTopology>
            <iidm:generator id="B3-G1 " energySource="OTHER" minP="0.0" maxP="900.0" targetP="700.0" localTargetV="20.0" localTargetQ="550.0" bus="B3" connectableBus="B3">
                <iidm:minMaxReactiveLimits minQ="550.0" maxQ="550.0"/>
            </iidm:generator>
        </iidm:voltageLevel>
        <iidm:voltageLevel id="VL9" nominalV="230.0" topologyKind="BUS_BREAKER">
            <iidm:busBreakerTopology>
                <iidm:bus id="B9" name="112         " v="204.8242" angle="5.3639"/>
            </iidm:busBreakerTopology>
        </iidm:voltageLevel>
        <iidm:twoWindingsTransformer id="T-3-9-1 " r="0.529" x="6.348" ratedU1="20.0" ratedU2="230.0" voltageLevelId1="VL3" bus1="B3" connectableBus1="B3" voltageLevelId2="VL9" bus2="B9" connectableBus2="B9"/>
    </iidm:substation>
    <iidm:substation id="S4-10">
        <iidm:voltageLevel id="VL4" nominalV="20.0" topologyKind="BUS_BREAKER">
            <iidm:busBreakerTopology>
                <iidm:bus id="B4" name="11          " v="16.3382" angle="26.4912"/>
            </iidm:busBreakerTopology>
            <iidm:generator id="B4-G1 " energySource="OTHER" minP="0.0" maxP="2000.0" targetP="700.0" localTargetV="20.0" localTargetQ="-100.0" bus="B4" connectableBus="B4">
                <iidm:minMaxReactiveLimits minQ="-100.0" maxQ="-100.0"/>
            </iidm:generator>
        </iidm:voltageLevel>
        <iidm:voltageLevel id="VL10" nominalV="230.0" topologyKind="BUS_BREAKER">
            <iidm:busBreakerTopology>
                <iidm:bus id="B10" name="111         " v="190.8034" angle="19.2858"/>
            </iidm:busBreakerTopology>
        </iidm:voltageLevel>
        <iidm:twoWindingsTransformer id="T-4-10-1 " r="0.529" x="6.348" ratedU1="20.0" ratedU2="230.0" voltageLevelId1="VL4" bus1="B4" connectableBus1="B4" voltageLevelId2="VL10" bus2="B10" connectableBus2="B10"/>
    </iidm:substation>
    <iidm:substation id="S7">
        <iidm:voltageLevel id="VL7" nominalV="230.0" topologyKind="BUS_BREAKER">
            <iidm:busBreakerTopology>
                <iidm:bus id="B7" name="3           " v="215.326" angle="7.2709"/>
            </iidm:busBreakerTopology>
            <iidm:load id="B7-L2 " loadType="UNDEFINED" p0="1159.0" q0="-73.5" bus="B7" connectableBus="B7"/>
        </iidm:voltageLevel>
    </iidm:substation>
    <iidm:substation id="S8">
        <iidm:voltageLevel id="VL8" nominalV="230.0" topologyKind="BUS_BREAKER">
            <iidm:busBreakerTopology>
                <iidm:bus id="B8" name="13          " v="202.1792" angle="-4.6176"/>
            </iidm:busBreakerTopology>
            <iidm:load id="B8-L1 " loadType="UNDEFINED" p0="1575.0" q0="-89.9" bus="B8" connectableBus="B8"/>
        </iidm:voltageLevel>
    </iidm:substation>
    <iidm:line id="L-5-6-1 " name="101_102_1 " r="2.6450000000000005" x="26.45" b1="7.088846880907372E-5" b2="7.088846880907372E-5" voltageLevelId1="VL5" bus1="B5" connectableBus1="B5" voltageLevelId2="VL6" bus2="B6" connectableBus2="B6"/>
    <iidm:line id="L-5-6-2 " name="101_102_2 " r="2.65029" x="26.45529" b1="7.088846880907372E-5" b2="7.088846880907372E-5" voltageLevelId1="VL5" bus1="B5" connectableBus1="B5" voltageLevelId2="VL6" bus2="B6" connectableBus2="B6"/>
    <iidm:line id="L-6-7-1 " name="102_3_1 " r="1.058" x="10.580000000000002" b1="2.835538752362949E-5" b2="2.835538752362949E-5" voltageLevelId1="VL6" bus1="B6" connectableBus1="B6" voltageLevelId2="VL7" bus2="B7" connectableBus2="B7"/>
    <iidm:line id="L-6-7-2 " name="102_3_2 " r="1.0632899999999998" x="10.58529" b1="2.835538752362949E-5" b2="2.835538752362949E-5" voltageLevelId1="VL6" bus1="B6" connectableBus1="B6" voltageLevelId2="VL7" bus2="B7" connectableBus2="B7"/>
    <iidm:line id="L-7-8-1 " name="3_13_1 " r="11.64329" x="116.38529" b1="3.119092627599244E-4" b2="3.119092627599244E-4" voltageLevelId1="VL7" bus1="B7" connectableBus1="B7" voltageLevelId2="VL8" bus2="B8" connectableBus2="B8"/>
    <iidm:line id="L-7-8-2 " name="3_13_2 " r="11.648580000000003" x="116.39057999999999" b1="3.119092627599244E-4" b2="3.119092627599244E-4" voltageLevelId1="VL7" bus1="B7" connectableBus1="B7" voltageLevelId2="VL8" bus2="B8" connectableBus2="B8"/>
    <iidm:line id="L-7-8-3 " name="3_13_3 " r="11.638" x="116.38" b1="3.119092627599244E-4" b2="3.119092627599244E-4" voltageLevelId1="VL7" bus1="B7" connectableBus1="B7" voltageLevelId2="VL8" bus2="B8" connectableBus2="B8"/>
    <iidm:line id="L-8-9-1 " name="13_112_1 " r="1.058" x="10.580000000000002" b1="2.835538752362949E-5" b2="2.835538752362949E-5" voltageLevelId1="VL8" bus1="B8" connectableBus1="B8" voltageLevelId2="VL9" bus2="B9" connectableBus2="B9"/>
    <iidm:line id="L-8-9-2 " name="13_112_2 " r="1.0632899999999998" x="10.58529" b1="2.835538752362949E-5" b2="2.835538752362949E-5" voltageLevelId1="VL8" bus1="B8" connectableBus1="B8" voltageLevelId2="VL9" bus2="B9" connectableBus2="B9"/>
    <iidm:line id="L-9-10-1 " name="112_111_1 " r="2.6450000000000005" x="26.45" b1="7.088846880907372E-5" b2="7.088846880907372E-5" voltageLevelId1="VL9" bus1="B9" connectableBus1="B9" voltageLevelId2="VL10" bus2="B10" connectableBus2="B10"/>
    <iidm:line id="L-9-10-2 " name="112_111_2 " r="2.65029" x="26.45529" b1="7.088846880907372E-5" b2="7.088846880907372E-5" voltageLevelId1="VL9" bus1="B9" connectableBus1="B9" voltageLevelId2="VL10" bus2="B10" connectableBus2="B10"/>
    <iidm:area id="A1" name="AREA1       " areaType="ControlArea" interchangeTarget="-400.0">
        <iidm:voltageLevelRef id="VL1"/>
        <iidm:voltageLevelRef id="VL2"/>
        <iidm:voltageLevelRef id="VL5"/>
        <iidm:voltageLevelRef id="VL6"/>
        <iidm:voltageLevelRef id="VL7"/>
        <iidm:areaBoundary ac="true" type="terminalRef" id="L-7-8-1 " side="ONE"/>
        <iidm:areaBoundary ac="true" type="terminalRef" id="L-7-8-2 " side="ONE"/>
        <iidm:areaBoundary ac="true" type="terminalRef" id="L-7-8-3 " side="ONE"/>
    </iidm:area>
    <iidm:area id="A2" name="AREA2       " areaType="ControlArea" interchangeTarget="400.0">
        <iidm:voltageLevelRef id="VL3"/>
        <iidm:voltageLevelRef id="VL4"/>
        <iidm:voltageLevelRef id="VL8"/>
        <iidm:voltageLevelRef id="VL9"/>
        <iidm:voltageLevelRef id="VL10"/>
        <iidm:areaBoundary ac="true" type="terminalRef" id="L-7-8-1 " side="TWO"/>
        <iidm:areaBoundary ac="true" type="terminalRef" id="L-7-8-2 " side="TWO"/>
        <iidm:areaBoundary ac="true" type="terminalRef" id="L-7-8-3 " side="TWO"/>
    </iidm:area>
    <iidm:extension id="VL1">
        <slt:slackTerminal id="B1-G1 "/>
    </iidm:extension>
</iidm:network>
